1

   Abaqus 3DEXPERIENCE R2018x                                  Date 02-Jun-2023   Time 20:00:07
   For use by SEJONG UNIVERSITY under license from Dassault Systemes or its subsidiary.



                         The Abaqus Software is a product of:

                           Dassault Systemes SIMULIA Corp.
                           1301 Atwood Avenue, Suite 101W
                              Johnston, RI 02919, USA
 


                   The Abaqus Software is available only under license
                   from Dassault Systemes or its subsidiary and may be
                   used or reproduced only in accordance with the terms
                   of such license.
 
                          On machine DESKTOP-3HIN0IV 
                          you are authorized to run
                          Abaqus/Foundation until 03-Nov-2025

                          Your site id is: 200000000016484 


 
                    For assistance or any other information you may
                    obtain contact information for your local office
                    from the world wide web at:

                      http://www.3ds.com/products/simulia/locations/

 
                * * * * * * * * * * * * * * * * * * * * * * * * * * * * * * 
                *                                                         * 
                *                   *****************                     * 
                *                   *  N O T I C E  *                     * 
                *                   *****************                     * 
                *                                                         * 
                *                                                         * 
                *               Abaqus 3DEXPERIENCE R2018x                * 
                *                                                         * 
                *          BUILD ID: 2017_11_08-02.21.41 127140           * 
                *                                                         * 
                *                                                         * 
                *  Please make sure you are using                         * 
                *  release 3DEXPERIENCE R2018x manuals                    * 
                *  plus the notes accompanying this release.              * 
                *                                                         * 
                *                                                         * 
                *                                                         * 
                *                                                         * 
                *                                                         * 
                *   This program may not be used for commercial purposes  * 
                *           without payment of a commercial fee.          * 
                *                                                         * 
                * * * * * * * * * * * * * * * * * * * * * * * * * * * * * * 


 



     PROCESSING PART, INSTANCE, AND ASSEMBLY INFORMATION
   *******************************************************


     END PROCESSING PART, INSTANCE, AND ASSEMBLY INFORMATION
   ***********************************************************




     OPTIONS BEING PROCESSED
   ***************************


  *Heading
  *Node
  *Element, type=B31
  *Nset, nset=ASSEMBLY_PART-1-1_SET-1
  *Nset, nset=ASSEMBLY_PART-1-1_SET-2
  *Nset, nset=ASSEMBLY_PART-1-1_SET-3
  *Nset, nset=ASSEMBLY_PART-1-1_SET-4
  *Elset, elset=ASSEMBLY_PART-1-1_SET-1
  *Elset, elset=ASSEMBLY_PART-1-1_SET-2
  *Elset, elset=ASSEMBLY_PART-1-1_SET-3
  *Elset, elset=ASSEMBLY_PART-1-1_SET-4
  *Element, type=CONN3D2
  *Nset, nset=ASSEMBLY_SET-10
  *Nset, nset=ASSEMBLY_SET-11
  *Nset, nset=ASSEMBLY_SET-12
  *Nset, nset=ASSEMBLY_SET-13
  *Nset, nset=ASSEMBLY_SET-14
  *Nset, nset=ASSEMBLY_SET-5
  *Nset, nset=ASSEMBLY_SET-6
  *Nset, nset=ASSEMBLY_SET-7
  *Nset, nset=ASSEMBLY_SET-8
  *Nset, nset=ASSEMBLY_SET-9
  *Nset, nset=ASSEMBLY_WIRE-1-SET-1
  *Nset, nset=ASSEMBLY_WIRE-2-SET-1
  *Nset, nset=ASSEMBLY_WIRE-3-SET-1
  *Nset, nset=ASSEMBLY_WIRE-4-SET-1
  *Elset, elset=ASSEMBLY_SET-5
  *Elset, elset=ASSEMBLY_SET-6
  *Elset, elset=ASSEMBLY_SET-7
  *Elset, elset=ASSEMBLY_SET-8
  *Elset, elset=ASSEMBLY_WIRE-1-SET-1
  *Elset, elset=ASSEMBLY_WIRE-2-SET-1
  *Elset, elset=ASSEMBLY_WIRE-3-SET-1
  *Elset, elset=ASSEMBLY_WIRE-4-SET-1
  *material, name=MATERIAL-1
  *density
  *elastic
  *connectorsection, elset=ASSEMBLY_SET-5, behavior=CONNSECT-1
  *connectorsection, elset=ASSEMBLY_SET-6, behavior=CONNSECT-1
  *connectorsection, elset=ASSEMBLY_SET-7, behavior=CONNSECT-2
  *connectorsection, elset=ASSEMBLY_SET-8, behavior=CONNSECT-2
  *connectorbehavior, name=CONNSECT-1
  *connectorelasticity, component=1
  *connectorelasticity, component=2
  *connectorelasticity, component=3
  *connectorelasticity, component=4
  *connectorelasticity, component=5
  *connectorelasticity, component=6
  *connectorbehavior, name=CONNSECT-2
  *connectorelasticity, component=1
  *connectorelasticity, component=2
  *connectorelasticity, component=3
  *connectorelasticity, component=4
  *connectorelasticity, component=5
  *connectorelasticity, component=6
  *orientation, name="ASSEMBLY_Datum csys-2"
  *orientation, name="ASSEMBLY_Datum csys-4"
  *orientation, name="ASSEMBLY_Datum csys-3"
  *orientation, name="ASSEMBLY_Datum csys-5"
  *beamsection, elset=ASSEMBLY_PART-1-1_SET-2, poisson=0.3, temperature=GRADIENTS, material=MATERIAL-1, section=BOX
  *beamsection, elset=ASSEMBLY_PART-1-1_SET-1, poisson=0.3, temperature=GRADIENTS, material=MATERIAL-1, section=BOX
  *beamsection, elset=ASSEMBLY_PART-1-1_SET-3, poisson=0.3, temperature=GRADIENTS, material=MATERIAL-1, section=BOX
  *connectorsection, elset=ASSEMBLY_SET-5, behavior=CONNSECT-1
  *connectorsection, elset=ASSEMBLY_SET-6, behavior=CONNSECT-1
  *connectorsection, elset=ASSEMBLY_SET-7, behavior=CONNSECT-2
  *connectorsection, elset=ASSEMBLY_SET-8, behavior=CONNSECT-2
  *connectorsection, elset=ASSEMBLY_SET-5, behavior=CONNSECT-1
  *connectorsection, elset=ASSEMBLY_SET-6, behavior=CONNSECT-1
  *connectorsection, elset=ASSEMBLY_SET-7, behavior=CONNSECT-2
  *connectorsection, elset=ASSEMBLY_SET-8, behavior=CONNSECT-2
  *output, field, variable=PRESELECT
  *output, field, variable=PRESELECT
  *output, field, variable=PRESELECT
  *Step, name=Step-1, nlgeom=NO, perturbation
  *frequency, eigensolver=LANCZOS, normalization=MASS, sim=YES, acousticcoupling=ON
  *output, field, variable=PRESELECT
  *Step, name=Step-1, nlgeom=NO, perturbation
  *Step, name=Step-1, nlgeom=NO, perturbation
  *frequency, eigensolver=LANCZOS, normalization=MASS, sim=YES, acousticcoupling=ON
  *frequency, eigensolver=LANCZOS, normalization=MASS, sim=YES, acousticcoupling=ON
  *output, field, variable=PRESELECT
  *nodeprint
  *endstep
  *Step, name=Step-1, nlgeom=NO, perturbation
  *frequency, eigensolver=LANCZOS, normalization=MASS, sim=YES, acousticcoupling=ON
  *frequency, eigensolver=LANCZOS, normalization=MASS, sim=YES, acousticcoupling=ON
  *endstep


                              E L E M E N T,   N O D E,   A N D   S U R F A C E   M A P S


**NOTE: This section may not include complete information about
        members of sets and surfaces. Use *PREPRINT, MODEL=YES 
        in order to get the set and surface members printed    
        under the following sections:                          
            - E L E M E N T   S E T S                          
            - N O D E   S E T S                                
            - S U R F A C E   D E F I N I T I O N S .          


Assembly name: ASSEMBLY
Number of instances: 1

ASSEMBLY LEVEL
  node sets:

    SET-10:
      instance name: PART-1-1
      number of nodes: 1
      nodes: 
        3

    SET-11:
      instance name: PART-1-1
      number of nodes: 2
      nodes: 
        4 8

    SET-12:
      instance name: PART-1-1
      number of nodes: 1
      nodes: 
        13

    SET-13:
      instance name: PART-1-1
      number of nodes: 1
      nodes: 
        3

    SET-14:
      instance name: PART-1-1
      number of nodes: 2
      nodes: 
        4 8

    SET-5:
      instance name: PART-1-1
      number of nodes: 2
      nodes: 
        1 5

    SET-6:
      instance name: PART-1-1
      number of nodes: 2
      nodes: 
        7 11

    SET-7:
      instance name: PART-1-1
      number of nodes: 2
      nodes: 
        2 9

    SET-8:
      instance name: PART-1-1
      number of nodes: 2
      nodes: 
        10 12

    SET-9:
      instance name: PART-1-1
      number of nodes: 1
      nodes: 
        13

    WIRE-1-SET-1:
      instance name: PART-1-1
      number of nodes: 2
      nodes: 
        2 9

    WIRE-2-SET-1:
      instance name: PART-1-1
      number of nodes: 2
      nodes: 
        10 12

    WIRE-3-SET-1:
      instance name: PART-1-1
      number of nodes: 2
      nodes: 
        1 5

    WIRE-4-SET-1:
      instance name: PART-1-1
      number of nodes: 2
      nodes: 
        7 11

  element sets:

    SET-5:
      number of elements: 1
      elements: 
        1

    SET-6:
      number of elements: 1
      elements: 
        2

    SET-7:
      number of elements: 1
      elements: 
        3

    SET-8:
      number of elements: 1
      elements: 
        4

    WIRE-1-SET-1:
      number of elements: 1
      elements: 
        3

    WIRE-2-SET-1:
      number of elements: 1
      elements: 
        4

    WIRE-3-SET-1:
      number of elements: 1
      elements: 
        1

    WIRE-4-SET-1:
      number of elements: 1
      elements: 
        2

  Surfaces:

INSTANCE LEVEL
  node sets:
    Instance name: PART-1-1
      node set name: SET-1
        number of nodes: 133
        nodes: 
          4 5 6 7 8 96 97 98 99 100 101 102 103 104 105 106 107 108 109
          110 111 112 113 114 115 116 117 118 119 120 121 122 123 124
          125 126 127 128 129 130 131 132 133 134 135 136 137 138 139
          140 141 142 143 144 145 146 147 148 149 150 151 152 153 154
          155 156 157 158 159 160 161 162 163 164 165 166 167 168 169
          170 171 172 173 174 175 176 177 178 179 180 181 182 183 184
          185 186 187 188 189 190 191 192 193 194 195 196 197 198 199
          200 201 202 203 204 205 206 207 208 209 210 211 212 213 214
          215 216 217 218 219 220 221 222 223
      node set name: SET-2
        number of nodes: 170
        nodes: 
          1 2 3 11 12 13 14 15 16 17 18 19 20 21 22 23 24 25 26 27 28 29
          30 31 32 33 34 35 36 37 38 39 40 41 42 43 44 45 46 47 48 49 50
          51 52 53 54 55 56 57 58 59 60 61 62 63 64 65 66 67 68 69 70 71
          72 73 74 75 76 77 78 79 80 81 82 83 84 85 86 87 88 89 90 91 92
          93 94 95 290 291 292 293 294 295 296 297 298 299 300 301 302
          303 304 305 306 307 308 309 310 311 312 313 314 315 316 317
          318 319 320 321 322 323 324 325 326 327 328 329 330 331 332
          333 334 335 336 337 338 339 340 341 342 343 344 345 346 347
          348 349 350 351 352 353 354 355 356 357 358 359 360 361 362
          363 364 365 366 367 368 369 370 371
      node set name: SET-3
        number of nodes: 68
        nodes: 
          9 10 224 225 226 227 228 229 230 231 232 233 234 235 236 237
          238 239 240 241 242 243 244 245 246 247 248 249 250 251 252
          253 254 255 256 257 258 259 260 261 262 263 264 265 266 267
          268 269 270 271 272 273 274 275 276 277 278 279 280 281 282
          283 284 285 286 287 288 289
      node set name: SET-4
        number of nodes: 371
        nodes: 
          1 2 3 4 5 6 7 8 9 10 11 12 13 14 15 16 17 18 19 20 21 22 23 24
          25 26 27 28 29 30 31 32 33 34 35 36 37 38 39 40 41 42 43 44 45
          46 47 48 49 50 51 52 53 54 55 56 57 58 59 60 61 62 63 64 65 66
          67 68 69 70 71 72 73 74 75 76 77 78 79 80 81 82 83 84 85 86 87
          88 89 90 91 92 93 94 95 96 97 98 99 100 101 102 103 104 105
          106 107 108 109 110 111 112 113 114 115 116 117 118 119 120
          121 122 123 124 125 126 127 128 129 130 131 132 133 134 135
          136 137 138 139 140 141 142 143 144 145 146 147 148 149 150
          151 152 153 154 155 156 157 158 159 160 161 162 163 164 165
          166 167 168 169 170 171 172 173 174 175 176 177 178 179 180
          181 182 183 184 185 186 187 188 189 190 191 192 193 194 195
          196 197 198 199 200 201 202 203 204 205 206 207 208 209 210
          211 212 213 214 215 216 217 218 219 220 221 222 223 224 225
          226 227 228 229 230 231 232 233 234 235 236 237 238 239 240
          241 242 243 244 245 246 247 248 249 250 251 252 253 254 255
          256 257 258 259 260 261 262 263 264 265 266 267 268 269 270
          271 272 273 274 275 276 277 278 279 280 281 282 283 284 285
          286 287 288 289 290 291 292 293 294 295 296 297 298 299 300
          301 302 303 304 305 306 307 308 309 310 311 312 313 314 315
          316 317 318 319 320 321 322 323 324 325 326 327 328 329 330
          331 332 333 334 335 336 337 338 339 340 341 342 343 344 345
          346 347 348 349 350 351 352 353 354 355 356 357 358 359 360
          361 362 363 364 365 366 367 368 369 370 371

  element sets:
    Instance name: 
    Instance name: PART-1-1
      element set name: SET-1
        number of elements: 132
        elements: 
          89 90 91 92 93 94 95 96 97 98 99 100 101 102 103 104 105 106
          107 108 109 110 111 112 113 114 115 116 117 118 119 120 121
          122 123 124 125 126 127 128 129 130 131 132 133 134 135 136
          137 138 139 140 141 142 143 144 145 146 147 148 149 150 151
          152 153 154 155 156 157 158 159 160 161 162 163 164 165 166
          167 168 169 170 171 172 173 174 175 176 177 178 179 180 181
          182 183 184 185 186 187 188 189 190 191 192 193 194 195 196
          197 198 199 200 201 202 203 204 205 206 207 208 209 210 211
          212 213 214 215 216 217 218 219 220
      element set name: SET-2
        number of elements: 168
        elements: 
          5 6 7 8 9 10 11 12 13 14 15 16 17 18 19 20 21 22 23 24 25 26
          27 28 29 30 31 32 33 34 35 36 37 38 39 40 41 42 43 44 45 46 47
          48 49 50 51 52 53 54 55 56 57 58 59 60 61 62 63 64 65 66 67 68
          69 70 71 72 73 74 75 76 77 78 79 80 81 82 83 84 85 86 87 88
          288 289 290 291 292 293 294 295 296 297 298 299 300 301 302
          303 304 305 306 307 308 309 310 311 312 313 314 315 316 317
          318 319 320 321 322 323 324 325 326 327 328 329 330 331 332
          333 334 335 336 337 338 339 340 341 342 343 344 345 346 347
          348 349 350 351 352 353 354 355 356 357 358 359 360 361 362
          363 364 365 366 367 368 369 370 371
      element set name: SET-3
        number of elements: 67
        elements: 
          221 222 223 224 225 226 227 228 229 230 231 232 233 234 235
          236 237 238 239 240 241 242 243 244 245 246 247 248 249 250
          251 252 253 254 255 256 257 258 259 260 261 262 263 264 265
          266 267 268 269 270 271 272 273 274 275 276 277 278 279 280
          281 282 283 284 285 286 287
      element set name: SET-4
        number of elements: 367
        elements: 
          5 6 7 8 9 10 11 12 13 14 15 16 17 18 19 20 21 22 23 24 25 26
          27 28 29 30 31 32 33 34 35 36 37 38 39 40 41 42 43 44 45 46 47
          48 49 50 51 52 53 54 55 56 57 58 59 60 61 62 63 64 65 66 67 68
          69 70 71 72 73 74 75 76 77 78 79 80 81 82 83 84 85 86 87 88 89
          90 91 92 93 94 95 96 97 98 99 100 101 102 103 104 105 106 107
          108 109 110 111 112 113 114 115 116 117 118 119 120 121 122
          123 124 125 126 127 128 129 130 131 132 133 134 135 136 137
          138 139 140 141 142 143 144 145 146 147 148 149 150 151 152
          153 154 155 156 157 158 159 160 161 162 163 164 165 166 167
          168 169 170 171 172 173 174 175 176 177 178 179 180 181 182
          183 184 185 186 187 188 189 190 191 192 193 194 195 196 197
          198 199 200 201 202 203 204 205 206 207 208 209 210 211 212
          213 214 215 216 217 218 219 220 221 222 223 224 225 226 227
          228 229 230 231 232 233 234 235 236 237 238 239 240 241 242
          243 244 245 246 247 248 249 250 251 252 253 254 255 256 257
          258 259 260 261 262 263 264 265 266 267 268 269 270 271 272
          273 274 275 276 277 278 279 280 281 282 283 284 285 286 287
          288 289 290 291 292 293 294 295 296 297 298 299 300 301 302
          303 304 305 306 307 308 309 310 311 312 313 314 315 316 317
          318 319 320 321 322 323 324 325 326 327 328 329 330 331 332
          333 334 335 336 337 338 339 340 341 342 343 344 345 346 347
          348 349 350 351 352 353 354 355 356 357 358 359 360 361 362
          363 364 365 366 367 368 369 370 371

  Surfaces:

GLOBAL TO LOCAL NODE AND ELEMENT MAPS
  Global     Local      
  node       node       
  number     number     
                        Instance name                                   
   1          1         PART-1-1                                        
   2          2         PART-1-1                                        
   3          3         PART-1-1                                        
   4          4         PART-1-1                                        
   5          5         PART-1-1                                        
   6          6         PART-1-1                                        
   7          7         PART-1-1                                        
   8          8         PART-1-1                                        
   9          9         PART-1-1                                        
   10         10        PART-1-1                                        
   11         11        PART-1-1                                        
   12         12        PART-1-1                                        
   13         13        PART-1-1                                        
   14         14        PART-1-1                                        
   15         15        PART-1-1                                        
   16         16        PART-1-1                                        
   17         17        PART-1-1                                        
   18         18        PART-1-1                                        
   19         19        PART-1-1                                        
   20         20        PART-1-1                                        
   21         21        PART-1-1                                        
   22         22        PART-1-1                                        
   23         23        PART-1-1                                        
   24         24        PART-1-1                                        
   25         25        PART-1-1                                        
   26         26        PART-1-1                                        
   27         27        PART-1-1                                        
   28         28        PART-1-1                                        
   29         29        PART-1-1                                        
   30         30        PART-1-1                                        
   31         31        PART-1-1                                        
   32         32        PART-1-1                                        
   33         33        PART-1-1                                        
   34         34        PART-1-1                                        
   35         35        PART-1-1                                        
   36         36        PART-1-1                                        
   37         37        PART-1-1                                        
   38         38        PART-1-1                                        
   39         39        PART-1-1                                        
   40         40        PART-1-1                                        
   41         41        PART-1-1                                        
   42         42        PART-1-1                                        
   43         43        PART-1-1                                        
   44         44        PART-1-1                                        
   45         45        PART-1-1                                        
   46         46        PART-1-1                                        
   47         47        PART-1-1                                        
   48         48        PART-1-1                                        
   49         49        PART-1-1                                        
   50         50        PART-1-1                                        
   51         51        PART-1-1                                        
   52         52        PART-1-1                                        
   53         53        PART-1-1                                        
   54         54        PART-1-1                                        
   55         55        PART-1-1                                        
   56         56        PART-1-1                                        
   57         57        PART-1-1                                        
   58         58        PART-1-1                                        
   59         59        PART-1-1                                        
   60         60        PART-1-1                                        
   61         61        PART-1-1                                        
   62         62        PART-1-1                                        
   63         63        PART-1-1                                        
   64         64        PART-1-1                                        
   65         65        PART-1-1                                        
   66         66        PART-1-1                                        
   67         67        PART-1-1                                        
   68         68        PART-1-1                                        
   69         69        PART-1-1                                        
   70         70        PART-1-1                                        
   71         71        PART-1-1                                        
   72         72        PART-1-1                                        
   73         73        PART-1-1                                        
   74         74        PART-1-1                                        
   75         75        PART-1-1                                        
   76         76        PART-1-1                                        
   77         77        PART-1-1                                        
   78         78        PART-1-1                                        
   79         79        PART-1-1                                        
   80         80        PART-1-1                                        
   81         81        PART-1-1                                        
   82         82        PART-1-1                                        
   83         83        PART-1-1                                        
   84         84        PART-1-1                                        
   85         85        PART-1-1                                        
   86         86        PART-1-1                                        
   87         87        PART-1-1                                        
   88         88        PART-1-1                                        
   89         89        PART-1-1                                        
   90         90        PART-1-1                                        
   91         91        PART-1-1                                        
   92         92        PART-1-1                                        
   93         93        PART-1-1                                        
   94         94        PART-1-1                                        
   95         95        PART-1-1                                        
   96         96        PART-1-1                                        
   97         97        PART-1-1                                        
   98         98        PART-1-1                                        
   99         99        PART-1-1                                        
   100        100       PART-1-1                                        
   101        101       PART-1-1                                        
   102        102       PART-1-1                                        
   103        103       PART-1-1                                        
   104        104       PART-1-1                                        
   105        105       PART-1-1                                        
   106        106       PART-1-1                                        
   107        107       PART-1-1                                        
   108        108       PART-1-1                                        
   109        109       PART-1-1                                        
   110        110       PART-1-1                                        
   111        111       PART-1-1                                        
   112        112       PART-1-1                                        
   113        113       PART-1-1                                        
   114        114       PART-1-1                                        
   115        115       PART-1-1                                        
   116        116       PART-1-1                                        
   117        117       PART-1-1                                        
   118        118       PART-1-1                                        
   119        119       PART-1-1                                        
   120        120       PART-1-1                                        
   121        121       PART-1-1                                        
   122        122       PART-1-1                                        
   123        123       PART-1-1                                        
   124        124       PART-1-1                                        
   125        125       PART-1-1                                        
   126        126       PART-1-1                                        
   127        127       PART-1-1                                        
   128        128       PART-1-1                                        
   129        129       PART-1-1                                        
   130        130       PART-1-1                                        
   131        131       PART-1-1                                        
   132        132       PART-1-1                                        
   133        133       PART-1-1                                        
   134        134       PART-1-1                                        
   135        135       PART-1-1                                        
   136        136       PART-1-1                                        
   137        137       PART-1-1                                        
   138        138       PART-1-1                                        
   139        139       PART-1-1                                        
   140        140       PART-1-1                                        
   141        141       PART-1-1                                        
   142        142       PART-1-1                                        
   143        143       PART-1-1                                        
   144        144       PART-1-1                                        
   145        145       PART-1-1                                        
   146        146       PART-1-1                                        
   147        147       PART-1-1                                        
   148        148       PART-1-1                                        
   149        149       PART-1-1                                        
   150        150       PART-1-1                                        
   151        151       PART-1-1                                        
   152        152       PART-1-1                                        
   153        153       PART-1-1                                        
   154        154       PART-1-1                                        
   155        155       PART-1-1                                        
   156        156       PART-1-1                                        
   157        157       PART-1-1                                        
   158        158       PART-1-1                                        
   159        159       PART-1-1                                        
   160        160       PART-1-1                                        
   161        161       PART-1-1                                        
   162        162       PART-1-1                                        
   163        163       PART-1-1                                        
   164        164       PART-1-1                                        
   165        165       PART-1-1                                        
   166        166       PART-1-1                                        
   167        167       PART-1-1                                        
   168        168       PART-1-1                                        
   169        169       PART-1-1                                        
   170        170       PART-1-1                                        
   171        171       PART-1-1                                        
   172        172       PART-1-1                                        
   173        173       PART-1-1                                        
   174        174       PART-1-1                                        
   175        175       PART-1-1                                        
   176        176       PART-1-1                                        
   177        177       PART-1-1                                        
   178        178       PART-1-1                                        
   179        179       PART-1-1                                        
   180        180       PART-1-1                                        
   181        181       PART-1-1                                        
   182        182       PART-1-1                                        
   183        183       PART-1-1                                        
   184        184       PART-1-1                                        
   185        185       PART-1-1                                        
   186        186       PART-1-1                                        
   187        187       PART-1-1                                        
   188        188       PART-1-1                                        
   189        189       PART-1-1                                        
   190        190       PART-1-1                                        
   191        191       PART-1-1                                        
   192        192       PART-1-1                                        
   193        193       PART-1-1                                        
   194        194       PART-1-1                                        
   195        195       PART-1-1                                        
   196        196       PART-1-1                                        
   197        197       PART-1-1                                        
   198        198       PART-1-1                                        
   199        199       PART-1-1                                        
   200        200       PART-1-1                                        
   201        201       PART-1-1                                        
   202        202       PART-1-1                                        
   203        203       PART-1-1                                        
   204        204       PART-1-1                                        
   205        205       PART-1-1                                        
   206        206       PART-1-1                                        
   207        207       PART-1-1                                        
   208        208       PART-1-1                                        
   209        209       PART-1-1                                        
   210        210       PART-1-1                                        
   211        211       PART-1-1                                        
   212        212       PART-1-1                                        
   213        213       PART-1-1                                        
   214        214       PART-1-1                                        
   215        215       PART-1-1                                        
   216        216       PART-1-1                                        
   217        217       PART-1-1                                        
   218        218       PART-1-1                                        
   219        219       PART-1-1                                        
   220        220       PART-1-1                                        
   221        221       PART-1-1                                        
   222        222       PART-1-1                                        
   223        223       PART-1-1                                        
   224        224       PART-1-1                                        
   225        225       PART-1-1                                        
   226        226       PART-1-1                                        
   227        227       PART-1-1                                        
   228        228       PART-1-1                                        
   229        229       PART-1-1                                        
   230        230       PART-1-1                                        
   231        231       PART-1-1                                        
   232        232       PART-1-1                                        
   233        233       PART-1-1                                        
   234        234       PART-1-1                                        
   235        235       PART-1-1                                        
   236        236       PART-1-1                                        
   237        237       PART-1-1                                        
   238        238       PART-1-1                                        
   239        239       PART-1-1                                        
   240        240       PART-1-1                                        
   241        241       PART-1-1                                        
   242        242       PART-1-1                                        
   243        243       PART-1-1                                        
   244        244       PART-1-1                                        
   245        245       PART-1-1                                        
   246        246       PART-1-1                                        
   247        247       PART-1-1                                        
   248        248       PART-1-1                                        
   249        249       PART-1-1                                        
   250        250       PART-1-1                                        
   251        251       PART-1-1                                        
   252        252       PART-1-1                                        
   253        253       PART-1-1                                        
   254        254       PART-1-1                                        
   255        255       PART-1-1                                        
   256        256       PART-1-1                                        
   257        257       PART-1-1                                        
   258        258       PART-1-1                                        
   259        259       PART-1-1                                        
   260        260       PART-1-1                                        
   261        261       PART-1-1                                        
   262        262       PART-1-1                                        
   263        263       PART-1-1                                        
   264        264       PART-1-1                                        
   265        265       PART-1-1                                        
   266        266       PART-1-1                                        
   267        267       PART-1-1                                        
   268        268       PART-1-1                                        
   269        269       PART-1-1                                        
   270        270       PART-1-1                                        
   271        271       PART-1-1                                        
   272        272       PART-1-1                                        
   273        273       PART-1-1                                        
   274        274       PART-1-1                                        
   275        275       PART-1-1                                        
   276        276       PART-1-1                                        
   277        277       PART-1-1                                        
   278        278       PART-1-1                                        
   279        279       PART-1-1                                        
   280        280       PART-1-1                                        
   281        281       PART-1-1                                        
   282        282       PART-1-1                                        
   283        283       PART-1-1                                        
   284        284       PART-1-1                                        
   285        285       PART-1-1                                        
   286        286       PART-1-1                                        
   287        287       PART-1-1                                        
   288        288       PART-1-1                                        
   289        289       PART-1-1                                        
   290        290       PART-1-1                                        
   291        291       PART-1-1                                        
   292        292       PART-1-1                                        
   293        293       PART-1-1                                        
   294        294       PART-1-1                                        
   295        295       PART-1-1                                        
   296        296       PART-1-1                                        
   297        297       PART-1-1                                        
   298        298       PART-1-1                                        
   299        299       PART-1-1                                        
   300        300       PART-1-1                                        
   301        301       PART-1-1                                        
   302        302       PART-1-1                                        
   303        303       PART-1-1                                        
   304        304       PART-1-1                                        
   305        305       PART-1-1                                        
   306        306       PART-1-1                                        
   307        307       PART-1-1                                        
   308        308       PART-1-1                                        
   309        309       PART-1-1                                        
   310        310       PART-1-1                                        
   311        311       PART-1-1                                        
   312        312       PART-1-1                                        
   313        313       PART-1-1                                        
   314        314       PART-1-1                                        
   315        315       PART-1-1                                        
   316        316       PART-1-1                                        
   317        317       PART-1-1                                        
   318        318       PART-1-1                                        
   319        319       PART-1-1                                        
   320        320       PART-1-1                                        
   321        321       PART-1-1                                        
   322        322       PART-1-1                                        
   323        323       PART-1-1                                        
   324        324       PART-1-1                                        
   325        325       PART-1-1                                        
   326        326       PART-1-1                                        
   327        327       PART-1-1                                        
   328        328       PART-1-1                                        
   329        329       PART-1-1                                        
   330        330       PART-1-1                                        
   331        331       PART-1-1                                        
   332        332       PART-1-1                                        
   333        333       PART-1-1                                        
   334        334       PART-1-1                                        
   335        335       PART-1-1                                        
   336        336       PART-1-1                                        
   337        337       PART-1-1                                        
   338        338       PART-1-1                                        
   339        339       PART-1-1                                        
   340        340       PART-1-1                                        
   341        341       PART-1-1                                        
   342        342       PART-1-1                                        
   343        343       PART-1-1                                        
   344        344       PART-1-1                                        
   345        345       PART-1-1                                        
   346        346       PART-1-1                                        
   347        347       PART-1-1                                        
   348        348       PART-1-1                                        
   349        349       PART-1-1                                        
   350        350       PART-1-1                                        
   351        351       PART-1-1                                        
   352        352       PART-1-1                                        
   353        353       PART-1-1                                        
   354        354       PART-1-1                                        
   355        355       PART-1-1                                        
   356        356       PART-1-1                                        
   357        357       PART-1-1                                        
   358        358       PART-1-1                                        
   359        359       PART-1-1                                        
   360        360       PART-1-1                                        
   361        361       PART-1-1                                        
   362        362       PART-1-1                                        
   363        363       PART-1-1                                        
   364        364       PART-1-1                                        
   365        365       PART-1-1                                        
   366        366       PART-1-1                                        
   367        367       PART-1-1                                        
   368        368       PART-1-1                                        
   369        369       PART-1-1                                        
   370        370       PART-1-1                                        
   371        371       PART-1-1                                        

  Global     Local      
  element    element    
  number     number     
                        Instance name                                   
   1          1                                                         
   2          2                                                         
   3          3                                                         
   4          4                                                         
   5          1         PART-1-1                                        
   6          2         PART-1-1                                        
   7          3         PART-1-1                                        
   8          4         PART-1-1                                        
   9          5         PART-1-1                                        
   10         6         PART-1-1                                        
   11         7         PART-1-1                                        
   12         8         PART-1-1                                        
   13         9         PART-1-1                                        
   14         10        PART-1-1                                        
   15         11        PART-1-1                                        
   16         12        PART-1-1                                        
   17         13        PART-1-1                                        
   18         14        PART-1-1                                        
   19         15        PART-1-1                                        
   20         16        PART-1-1                                        
   21         17        PART-1-1                                        
   22         18        PART-1-1                                        
   23         19        PART-1-1                                        
   24         20        PART-1-1                                        
   25         21        PART-1-1                                        
   26         22        PART-1-1                                        
   27         23        PART-1-1                                        
   28         24        PART-1-1                                        
   29         25        PART-1-1                                        
   30         26        PART-1-1                                        
   31         27        PART-1-1                                        
   32         28        PART-1-1                                        
   33         29        PART-1-1                                        
   34         30        PART-1-1                                        
   35         31        PART-1-1                                        
   36         32        PART-1-1                                        
   37         33        PART-1-1                                        
   38         34        PART-1-1                                        
   39         35        PART-1-1                                        
   40         36        PART-1-1                                        
   41         37        PART-1-1                                        
   42         38        PART-1-1                                        
   43         39        PART-1-1                                        
   44         40        PART-1-1                                        
   45         41        PART-1-1                                        
   46         42        PART-1-1                                        
   47         43        PART-1-1                                        
   48         44        PART-1-1                                        
   49         45        PART-1-1                                        
   50         46        PART-1-1                                        
   51         47        PART-1-1                                        
   52         48        PART-1-1                                        
   53         49        PART-1-1                                        
   54         50        PART-1-1                                        
   55         51        PART-1-1                                        
   56         52        PART-1-1                                        
   57         53        PART-1-1                                        
   58         54        PART-1-1                                        
   59         55        PART-1-1                                        
   60         56        PART-1-1                                        
   61         57        PART-1-1                                        
   62         58        PART-1-1                                        
   63         59        PART-1-1                                        
   64         60        PART-1-1                                        
   65         61        PART-1-1                                        
   66         62        PART-1-1                                        
   67         63        PART-1-1                                        
   68         64        PART-1-1                                        
   69         65        PART-1-1                                        
   70         66        PART-1-1                                        
   71         67        PART-1-1                                        
   72         68        PART-1-1                                        
   73         69        PART-1-1                                        
   74         70        PART-1-1                                        
   75         71        PART-1-1                                        
   76         72        PART-1-1                                        
   77         73        PART-1-1                                        
   78         74        PART-1-1                                        
   79         75        PART-1-1                                        
   80         76        PART-1-1                                        
   81         77        PART-1-1                                        
   82         78        PART-1-1                                        
   83         79        PART-1-1                                        
   84         80        PART-1-1                                        
   85         81        PART-1-1                                        
   86         82        PART-1-1                                        
   87         83        PART-1-1                                        
   88         84        PART-1-1                                        
   89         85        PART-1-1                                        
   90         86        PART-1-1                                        
   91         87        PART-1-1                                        
   92         88        PART-1-1                                        
   93         89        PART-1-1                                        
   94         90        PART-1-1                                        
   95         91        PART-1-1                                        
   96         92        PART-1-1                                        
   97         93        PART-1-1                                        
   98         94        PART-1-1                                        
   99         95        PART-1-1                                        
   100        96        PART-1-1                                        
   101        97        PART-1-1                                        
   102        98        PART-1-1                                        
   103        99        PART-1-1                                        
   104        100       PART-1-1                                        
   105        101       PART-1-1                                        
   106        102       PART-1-1                                        
   107        103       PART-1-1                                        
   108        104       PART-1-1                                        
   109        105       PART-1-1                                        
   110        106       PART-1-1                                        
   111        107       PART-1-1                                        
   112        108       PART-1-1                                        
   113        109       PART-1-1                                        
   114        110       PART-1-1                                        
   115        111       PART-1-1                                        
   116        112       PART-1-1                                        
   117        113       PART-1-1                                        
   118        114       PART-1-1                                        
   119        115       PART-1-1                                        
   120        116       PART-1-1                                        
   121        117       PART-1-1                                        
   122        118       PART-1-1                                        
   123        119       PART-1-1                                        
   124        120       PART-1-1                                        
   125        121       PART-1-1                                        
   126        122       PART-1-1                                        
   127        123       PART-1-1                                        
   128        124       PART-1-1                                        
   129        125       PART-1-1                                        
   130        126       PART-1-1                                        
   131        127       PART-1-1                                        
   132        128       PART-1-1                                        
   133        129       PART-1-1                                        
   134        130       PART-1-1                                        
   135        131       PART-1-1                                        
   136        132       PART-1-1                                        
   137        133       PART-1-1                                        
   138        134       PART-1-1                                        
   139        135       PART-1-1                                        
   140        136       PART-1-1                                        
   141        137       PART-1-1                                        
   142        138       PART-1-1                                        
   143        139       PART-1-1                                        
   144        140       PART-1-1                                        
   145        141       PART-1-1                                        
   146        142       PART-1-1                                        
   147        143       PART-1-1                                        
   148        144       PART-1-1                                        
   149        145       PART-1-1                                        
   150        146       PART-1-1                                        
   151        147       PART-1-1                                        
   152        148       PART-1-1                                        
   153        149       PART-1-1                                        
   154        150       PART-1-1                                        
   155        151       PART-1-1                                        
   156        152       PART-1-1                                        
   157        153       PART-1-1                                        
   158        154       PART-1-1                                        
   159        155       PART-1-1                                        
   160        156       PART-1-1                                        
   161        157       PART-1-1                                        
   162        158       PART-1-1                                        
   163        159       PART-1-1                                        
   164        160       PART-1-1                                        
   165        161       PART-1-1                                        
   166        162       PART-1-1                                        
   167        163       PART-1-1                                        
   168        164       PART-1-1                                        
   169        165       PART-1-1                                        
   170        166       PART-1-1                                        
   171        167       PART-1-1                                        
   172        168       PART-1-1                                        
   173        169       PART-1-1                                        
   174        170       PART-1-1                                        
   175        171       PART-1-1                                        
   176        172       PART-1-1                                        
   177        173       PART-1-1                                        
   178        174       PART-1-1                                        
   179        175       PART-1-1                                        
   180        176       PART-1-1                                        
   181        177       PART-1-1                                        
   182        178       PART-1-1                                        
   183        179       PART-1-1                                        
   184        180       PART-1-1                                        
   185        181       PART-1-1                                        
   186        182       PART-1-1                                        
   187        183       PART-1-1                                        
   188        184       PART-1-1                                        
   189        185       PART-1-1                                        
   190        186       PART-1-1                                        
   191        187       PART-1-1                                        
   192        188       PART-1-1                                        
   193        189       PART-1-1                                        
   194        190       PART-1-1                                        
   195        191       PART-1-1                                        
   196        192       PART-1-1                                        
   197        193       PART-1-1                                        
   198        194       PART-1-1                                        
   199        195       PART-1-1                                        
   200        196       PART-1-1                                        
   201        197       PART-1-1                                        
   202        198       PART-1-1                                        
   203        199       PART-1-1                                        
   204        200       PART-1-1                                        
   205        201       PART-1-1                                        
   206        202       PART-1-1                                        
   207        203       PART-1-1                                        
   208        204       PART-1-1                                        
   209        205       PART-1-1                                        
   210        206       PART-1-1                                        
   211        207       PART-1-1                                        
   212        208       PART-1-1                                        
   213        209       PART-1-1                                        
   214        210       PART-1-1                                        
   215        211       PART-1-1                                        
   216        212       PART-1-1                                        
   217        213       PART-1-1                                        
   218        214       PART-1-1                                        
   219        215       PART-1-1                                        
   220        216       PART-1-1                                        
   221        217       PART-1-1                                        
   222        218       PART-1-1                                        
   223        219       PART-1-1                                        
   224        220       PART-1-1                                        
   225        221       PART-1-1                                        
   226        222       PART-1-1                                        
   227        223       PART-1-1                                        
   228        224       PART-1-1                                        
   229        225       PART-1-1                                        
   230        226       PART-1-1                                        
   231        227       PART-1-1                                        
   232        228       PART-1-1                                        
   233        229       PART-1-1                                        
   234        230       PART-1-1                                        
   235        231       PART-1-1                                        
   236        232       PART-1-1                                        
   237        233       PART-1-1                                        
   238        234       PART-1-1                                        
   239        235       PART-1-1                                        
   240        236       PART-1-1                                        
   241        237       PART-1-1                                        
   242        238       PART-1-1                                        
   243        239       PART-1-1                                        
   244        240       PART-1-1                                        
   245        241       PART-1-1                                        
   246        242       PART-1-1                                        
   247        243       PART-1-1                                        
   248        244       PART-1-1                                        
   249        245       PART-1-1                                        
   250        246       PART-1-1                                        
   251        247       PART-1-1                                        
   252        248       PART-1-1                                        
   253        249       PART-1-1                                        
   254        250       PART-1-1                                        
   255        251       PART-1-1                                        
   256        252       PART-1-1                                        
   257        253       PART-1-1                                        
   258        254       PART-1-1                                        
   259        255       PART-1-1                                        
   260        256       PART-1-1                                        
   261        257       PART-1-1                                        
   262        258       PART-1-1                                        
   263        259       PART-1-1                                        
   264        260       PART-1-1                                        
   265        261       PART-1-1                                        
   266        262       PART-1-1                                        
   267        263       PART-1-1                                        
   268        264       PART-1-1                                        
   269        265       PART-1-1                                        
   270        266       PART-1-1                                        
   271        267       PART-1-1                                        
   272        268       PART-1-1                                        
   273        269       PART-1-1                                        
   274        270       PART-1-1                                        
   275        271       PART-1-1                                        
   276        272       PART-1-1                                        
   277        273       PART-1-1                                        
   278        274       PART-1-1                                        
   279        275       PART-1-1                                        
   280        276       PART-1-1                                        
   281        277       PART-1-1                                        
   282        278       PART-1-1                                        
   283        279       PART-1-1                                        
   284        280       PART-1-1                                        
   285        281       PART-1-1                                        
   286        282       PART-1-1                                        
   287        283       PART-1-1                                        
   288        284       PART-1-1                                        
   289        285       PART-1-1                                        
   290        286       PART-1-1                                        
   291        287       PART-1-1                                        
   292        288       PART-1-1                                        
   293        289       PART-1-1                                        
   294        290       PART-1-1                                        
   295        291       PART-1-1                                        
   296        292       PART-1-1                                        
   297        293       PART-1-1                                        
   298        294       PART-1-1                                        
   299        295       PART-1-1                                        
   300        296       PART-1-1                                        
   301        297       PART-1-1                                        
   302        298       PART-1-1                                        
   303        299       PART-1-1                                        
   304        300       PART-1-1                                        
   305        301       PART-1-1                                        
   306        302       PART-1-1                                        
   307        303       PART-1-1                                        
   308        304       PART-1-1                                        
   309        305       PART-1-1                                        
   310        306       PART-1-1                                        
   311        307       PART-1-1                                        
   312        308       PART-1-1                                        
   313        309       PART-1-1                                        
   314        310       PART-1-1                                        
   315        311       PART-1-1                                        
   316        312       PART-1-1                                        
   317        313       PART-1-1                                        
   318        314       PART-1-1                                        
   319        315       PART-1-1                                        
   320        316       PART-1-1                                        
   321        317       PART-1-1                                        
   322        318       PART-1-1                                        
   323        319       PART-1-1                                        
   324        320       PART-1-1                                        
   325        321       PART-1-1                                        
   326        322       PART-1-1                                        
   327        323       PART-1-1                                        
   328        324       PART-1-1                                        
   329        325       PART-1-1                                        
   330        326       PART-1-1                                        
   331        327       PART-1-1                                        
   332        328       PART-1-1                                        
   333        329       PART-1-1                                        
   334        330       PART-1-1                                        
   335        331       PART-1-1                                        
   336        332       PART-1-1                                        
   337        333       PART-1-1                                        
   338        334       PART-1-1                                        
   339        335       PART-1-1                                        
   340        336       PART-1-1                                        
   341        337       PART-1-1                                        
   342        338       PART-1-1                                        
   343        339       PART-1-1                                        
   344        340       PART-1-1                                        
   345        341       PART-1-1                                        
   346        342       PART-1-1                                        
   347        343       PART-1-1                                        
   348        344       PART-1-1                                        
   349        345       PART-1-1                                        
   350        346       PART-1-1                                        
   351        347       PART-1-1                                        
   352        348       PART-1-1                                        
   353        349       PART-1-1                                        
   354        350       PART-1-1                                        
   355        351       PART-1-1                                        
   356        352       PART-1-1                                        
   357        353       PART-1-1                                        
   358        354       PART-1-1                                        
   359        355       PART-1-1                                        
   360        356       PART-1-1                                        
   361        357       PART-1-1                                        
   362        358       PART-1-1                                        
   363        359       PART-1-1                                        
   364        360       PART-1-1                                        
   365        361       PART-1-1                                        
   366        362       PART-1-1                                        
   367        363       PART-1-1                                        
   368        364       PART-1-1                                        
   369        365       PART-1-1                                        
   370        366       PART-1-1                                        
   371        367       PART-1-1                                        

LOCAL TO GLOBAL NODE AND ELEMENT MAPS
                                                  Local      Global     
                                                  node       node       
                                                  number     number
  Instance name
  PART-1-1                                         1          1         
  PART-1-1                                         2          2         
  PART-1-1                                         3          3         
  PART-1-1                                         4          4         
  PART-1-1                                         5          5         
  PART-1-1                                         6          6         
  PART-1-1                                         7          7         
  PART-1-1                                         8          8         
  PART-1-1                                         9          9         
  PART-1-1                                         10         10        
  PART-1-1                                         11         11        
  PART-1-1                                         12         12        
  PART-1-1                                         13         13        
  PART-1-1                                         14         14        
  PART-1-1                                         15         15        
  PART-1-1                                         16         16        
  PART-1-1                                         17         17        
  PART-1-1                                         18         18        
  PART-1-1                                         19         19        
  PART-1-1                                         20         20        
  PART-1-1                                         21         21        
  PART-1-1                                         22         22        
  PART-1-1                                         23         23        
  PART-1-1                                         24         24        
  PART-1-1                                         25         25        
  PART-1-1                                         26         26        
  PART-1-1                                         27         27        
  PART-1-1                                         28         28        
  PART-1-1                                         29         29        
  PART-1-1                                         30         30        
  PART-1-1                                         31         31        
  PART-1-1                                         32         32        
  PART-1-1                                         33         33        
  PART-1-1                                         34         34        
  PART-1-1                                         35         35        
  PART-1-1                                         36         36        
  PART-1-1                                         37         37        
  PART-1-1                                         38         38        
  PART-1-1                                         39         39        
  PART-1-1                                         40         40        
  PART-1-1                                         41         41        
  PART-1-1                                         42         42        
  PART-1-1                                         43         43        
  PART-1-1                                         44         44        
  PART-1-1                                         45         45        
  PART-1-1                                         46         46        
  PART-1-1                                         47         47        
  PART-1-1                                         48         48        
  PART-1-1                                         49         49        
  PART-1-1                                         50         50        
  PART-1-1                                         51         51        
  PART-1-1                                         52         52        
  PART-1-1                                         53         53        
  PART-1-1                                         54         54        
  PART-1-1                                         55         55        
  PART-1-1                                         56         56        
  PART-1-1                                         57         57        
  PART-1-1                                         58         58        
  PART-1-1                                         59         59        
  PART-1-1                                         60         60        
  PART-1-1                                         61         61        
  PART-1-1                                         62         62        
  PART-1-1                                         63         63        
  PART-1-1                                         64         64        
  PART-1-1                                         65         65        
  PART-1-1                                         66         66        
  PART-1-1                                         67         67        
  PART-1-1                                         68         68        
  PART-1-1                                         69         69        
  PART-1-1                                         70         70        
  PART-1-1                                         71         71        
  PART-1-1                                         72         72        
  PART-1-1                                         73         73        
  PART-1-1                                         74         74        
  PART-1-1                                         75         75        
  PART-1-1                                         76         76        
  PART-1-1                                         77         77        
  PART-1-1                                         78         78        
  PART-1-1                                         79         79        
  PART-1-1                                         80         80        
  PART-1-1                                         81         81        
  PART-1-1                                         82         82        
  PART-1-1                                         83         83        
  PART-1-1                                         84         84        
  PART-1-1                                         85         85        
  PART-1-1                                         86         86        
  PART-1-1                                         87         87        
  PART-1-1                                         88         88        
  PART-1-1                                         89         89        
  PART-1-1                                         90         90        
  PART-1-1                                         91         91        
  PART-1-1                                         92         92        
  PART-1-1                                         93         93        
  PART-1-1                                         94         94        
  PART-1-1                                         95         95        
  PART-1-1                                         96         96        
  PART-1-1                                         97         97        
  PART-1-1                                         98         98        
  PART-1-1                                         99         99        
  PART-1-1                                         100        100       
  PART-1-1                                         101        101       
  PART-1-1                                         102        102       
  PART-1-1                                         103        103       
  PART-1-1                                         104        104       
  PART-1-1                                         105        105       
  PART-1-1                                         106        106       
  PART-1-1                                         107        107       
  PART-1-1                                         108        108       
  PART-1-1                                         109        109       
  PART-1-1                                         110        110       
  PART-1-1                                         111        111       
  PART-1-1                                         112        112       
  PART-1-1                                         113        113       
  PART-1-1                                         114        114       
  PART-1-1                                         115        115       
[...]
       190      2.0946951E-06  2.2103848E-05  4.9670885E+00  2.2957631E-01  1.1275060E-01 -9.2879774E-07 
       191      2.1328513E-06  1.5897980E-05  4.1998498E+00  2.2876039E-01  1.1505776E-01 -9.4711414E-07 
       192      2.1734503E-06  2.9256611E-06  2.6334719E+00  2.2876041E-01  1.1956412E-01 -9.9388515E-07 
       193      2.1758914E-06 -3.9045287E-06  1.8345629E+00  2.2957635E-01  1.2177698E-01 -1.0219896E-06 
       194      2.1782585E-06 -1.0900456E-05  1.0222015E+00  2.3036728E-01  1.2389227E-01 -1.0487950E-06 
       195      2.1805515E-06 -1.8052961E-05  1.9712950E-01  2.3113312E-01  1.2590958E-01 -1.0743026E-06 
       196      2.1827701E-06 -2.5352848E-05 -6.3990501E-01  2.3187378E-01  1.2782868E-01 -1.0985162E-06 
       197      2.1849141E-06 -3.2790984E-05 -1.4881576E+00  2.3258919E-01  1.2964958E-01 -1.1214422E-06 
       198      2.1869832E-06 -4.0358198E-05 -2.3468759E+00  2.3327926E-01  1.3137248E-01 -1.1430890E-06 
       199      2.1889773E-06 -4.8045374E-05 -3.2153096E+00  2.3394392E-01  1.3299782E-01 -1.1634679E-06 
       200      2.1908959E-06 -5.5843448E-05 -4.0927102E+00  2.3458310E-01  1.3452626E-01 -1.1825923E-06 
       201      2.1927387E-06 -6.3743408E-05 -4.9783297E+00  2.3519673E-01  1.3595867E-01 -1.2004784E-06 
       202      2.1945057E-06 -7.1736386E-05 -5.8714312E+00  2.3578473E-01  1.3729616E-01 -1.2171451E-06 
       203      2.1961961E-06 -7.9813567E-05 -6.7712778E+00  2.3634706E-01  1.3854008E-01 -1.2326137E-06 
       204      2.1978101E-06 -8.7966272E-05 -7.6771417E+00  2.3688364E-01  1.3969199E-01 -1.2469083E-06 
       205      2.1993471E-06 -9.6185961E-05 -8.5883046E+00  2.3739442E-01  1.4075368E-01 -1.2600554E-06 
       206      2.2008069E-06 -1.0446425E-04 -9.5040586E+00  2.3787933E-01  1.4172720E-01 -1.2720844E-06 
       207      2.2021892E-06 -1.1279295E-04 -1.0423708E+01  2.3833834E-01  1.4261481E-01 -1.2830275E-06 
       208      2.2034939E-06 -1.2116403E-04 -1.1346571E+01  2.3877139E-01  1.4341901E-01 -1.2929193E-06 
       209      2.2047206E-06 -1.2956969E-04 -1.2271982E+01  2.3917843E-01  1.4414254E-01 -1.3017975E-06 
       210      2.2058693E-06 -1.3800238E-04 -1.3199289E+01  2.3955941E-01  1.4478839E-01 -1.3097022E-06 
       211      2.2069397E-06 -1.4645477E-04 -1.4127863E+01  2.3991430E-01  1.4535977E-01 -1.3166765E-06 
       212      2.2079315E-06 -1.5491981E-04 -1.5057092E+01  2.4024306E-01  1.4586013E-01 -1.3227663E-06 
       213      2.2088445E-06 -1.6339073E-04 -1.5986385E+01  2.4054565E-01  1.4629316E-01 -1.3280201E-06 
       214      2.2096787E-06 -1.7186108E-04 -1.6915178E+01  2.4082204E-01  1.4666280E-01 -1.3324892E-06 
       215      2.2104339E-06 -1.8032472E-04 -1.7842926E+01  2.4107219E-01  1.4697322E-01 -1.3362276E-06 
       216      2.2111100E-06 -1.8877580E-04 -1.8769110E+01  2.4129609E-01  1.4722881E-01 -1.3392920E-06 
       217      2.2117068E-06 -1.9720896E-04 -1.9693252E+01  2.4149370E-01  1.4743422E-01 -1.3417419E-06 
       218      2.2122243E-06 -2.0561908E-04 -2.0614887E+01  2.4166501E-01  1.4759434E-01 -1.3436396E-06 
       219      2.2126623E-06 -2.1400149E-04 -2.1533587E+01  2.4181000E-01  1.4771427E-01 -1.3450500E-06 
       220      2.2130209E-06 -2.2235191E-04 -2.2448956E+01  2.4192864E-01  1.4779937E-01 -1.3460407E-06 
       221      2.2132997E-06 -2.3066649E-04 -2.3360632E+01  2.4202094E-01  1.4785523E-01 -1.3466819E-06 
       222      2.2134990E-06 -2.3894182E-04 -2.4268289E+01  2.4208687E-01  1.4788766E-01 -1.3470466E-06 
       223      2.2136186E-06 -2.4717494E-04 -2.5171636E+01  2.4212643E-01  1.4790271E-01 -1.3472105E-06 
       224      1.2916832E-06  1.1201760E-05 -4.4523934E+00 -3.3051888E-02 -2.3048606E-02  5.9864293E-08 
       225      1.2035765E-06  1.1682976E-05 -4.3392482E+00 -3.3169775E-02 -2.1550965E-02  6.2091770E-08 
       226      1.1154277E-06  1.2174422E-05 -4.2340404E+00 -3.3284105E-02 -2.0130188E-02  6.3993635E-08 
       227      1.0272389E-06  1.2674091E-05 -4.1363385E+00 -3.3394865E-02 -1.8783288E-02  6.5575764E-08 
       228      9.3901268E-07  1.3180016E-05 -4.0457276E+00 -3.3502044E-02 -1.7507353E-02  6.6844269E-08 
       229      8.5075159E-07  1.3690262E-05 -3.9618088E+00 -3.3605630E-02 -1.6299534E-02  6.7805472E-08 
       230      7.6245802E-07  1.4202934E-05 -3.8841987E+00 -3.3705613E-02 -1.5157042E-02  6.8465933E-08 
       231      6.7413457E-07  1.4716176E-05 -3.8125292E+00 -3.3801980E-02 -1.4077141E-02  6.8832416E-08 
       232      5.8578338E-07  1.5228172E-05 -3.7464475E+00 -3.3894723E-02 -1.3057148E-02  6.8911934E-08 
       233      4.9740756E-07  1.5737145E-05 -3.6856157E+00 -3.3983831E-02 -1.2094430E-02  6.8711751E-08 
       234      4.0900925E-07  1.6241362E-05 -3.6297105E+00 -3.4069294E-02 -1.1186391E-02  6.8239418E-08 
       235      3.2059105E-07  1.6739137E-05 -3.5784230E+00 -3.4151104E-02 -1.0330477E-02  6.7502745E-08 
       236      2.3215548E-07  1.7228832E-05 -3.5314587E+00 -3.4229251E-02 -9.5241711E-03  6.6509785E-08 
       237      1.4370501E-07  1.7708861E-05 -3.4885371E+00 -3.4303728E-02 -8.7649870E-03  6.5268825E-08 
       238      5.5242689E-08  1.8177687E-05 -3.4493921E+00 -3.4374526E-02 -8.0504728E-03  6.3788359E-08 
       239     -3.3229043E-08  1.8633825E-05 -3.4137712E+00 -3.4441637E-02 -7.3782008E-03  6.2077082E-08 
       240     -1.2170741E-07  1.9075843E-05 -3.3814357E+00 -3.4505055E-02 -6.7457696E-03  6.0143966E-08 
       241     -2.1018989E-07  1.9502365E-05 -3.3521606E+00 -3.4564772E-02 -6.1507996E-03  5.7998222E-08 
       242     -2.9867329E-07  1.9912070E-05 -3.3257345E+00 -3.4620783E-02 -5.5909345E-03  5.5649311E-08 
       243     -3.8715526E-07  2.0303699E-05 -3.3019596E+00 -3.4673081E-02 -5.0638338E-03  5.3106908E-08 
       244     -4.7563295E-07  2.0676053E-05 -3.2806515E+00 -3.4721660E-02 -4.5671741E-03  5.0380948E-08 
       245     -5.6410342E-07  2.1027995E-05 -3.2616391E+00 -3.4766516E-02 -4.0986491E-03  4.7481563E-08 
       246     -6.5256405E-07  2.1358453E-05 -3.2447647E+00 -3.4807644E-02 -3.6559636E-03  4.4419054E-08 
       247     -7.4101220E-07  2.1666417E-05 -3.2298839E+00 -3.4845039E-02 -3.2368348E-03  4.1203926E-08 
       248     -8.2944497E-07  2.1950948E-05 -3.2168654E+00 -3.4878697E-02 -2.8389914E-03  3.7846876E-08 
       249     -9.1785982E-07  2.2211173E-05 -3.2055913E+00 -3.4908614E-02 -2.4601699E-03  3.4358760E-08 
       250     -1.0062537E-06  2.2446289E-05 -3.1959568E+00 -3.4934788E-02 -2.0981160E-03  3.0750566E-08 
       251     -1.0946240E-06  2.2655563E-05 -3.1878701E+00 -3.4957215E-02 -1.7505814E-03  2.7033406E-08 
       252     -1.1829681E-06  2.2838331E-05 -3.1812528E+00 -3.4975894E-02 -1.4153242E-03  2.3218527E-08 
       253     -1.2712829E-06  2.2994000E-05 -3.1760394E+00 -3.4990821E-02 -1.0901071E-03  1.9317296E-08 
       254     -1.3595659E-06  2.3122051E-05 -3.1721776E+00 -3.5001996E-02 -7.7269654E-04  1.5341170E-08 
       255     -1.4478141E-06  2.3222039E-05 -3.1696281E+00 -3.5009418E-02 -4.6086210E-04  1.1301705E-08 
       256     -1.5360248E-06  2.3293592E-05 -3.1683647E+00 -3.5013085E-02 -1.5237547E-04  7.2105459E-09 
       257     -1.6241951E-06  2.3336414E-05 -3.1683743E+00 -3.5012997E-02  1.5499050E-04  3.0794325E-09 
       258     -1.7123223E-06  2.3350287E-05 -3.1696570E+00 -3.5009155E-02  4.6346255E-04 -1.0798312E-09 
       259     -1.8004037E-06  2.3335068E-05 -3.1722256E+00 -3.5001558E-02  7.7526786E-04 -5.2553893E-09 
       260     -1.8884362E-06  2.3290691E-05 -3.1761062E+00 -3.4990207E-02  1.0926347E-03 -9.4353583E-09 
       261     -1.9764173E-06  2.3217169E-05 -3.1813382E+00 -3.4975104E-02  1.4177937E-03 -1.3607875E-08 
       262     -2.0643441E-06  2.3114591E-05 -3.1879736E+00 -3.4956250E-02  1.7529783E-03 -1.7761091E-08 
       263     -2.1522139E-06  2.2983123E-05 -3.1960779E+00 -3.4933648E-02  2.1004260E-03 -2.1883212E-08 
       264     -2.2400238E-06  2.2823008E-05 -3.2057296E+00 -3.4907299E-02  2.4623786E-03 -2.5962459E-08 
       265     -2.3277713E-06  2.2634567E-05 -3.2170200E+00 -3.4877206E-02  2.8410847E-03 -2.9987134E-08 
       266     -2.4154533E-06  2.2418200E-05 -3.2300542E+00 -3.4843374E-02  3.2387987E-03 -3.3945603E-08 
       267     -2.5030675E-06  2.2174380E-05 -3.2449498E+00 -3.4805804E-02  3.6577840E-03 -3.7826378E-08 
       268     -2.5906107E-06  2.1903654E-05 -3.2618381E+00 -3.4764502E-02  4.1003123E-03 -4.1618126E-08 
       269     -2.6780804E-06  2.1606643E-05 -3.2808633E+00 -3.4719472E-02  4.5686663E-03 -4.5309697E-08 
       270     -2.7654740E-06  2.1284035E-05 -3.3021832E+00 -3.4670719E-02  5.0651414E-03 -4.8890091E-08 
       271     -2.8527885E-06  2.0936589E-05 -3.3259686E+00 -3.4618247E-02  5.5920443E-03 -5.2348433E-08 
       272     -2.9400213E-06  2.0565132E-05 -3.3524040E+00 -3.4562063E-02  6.1516984E-03 -5.5674043E-08 
       273     -3.0271698E-06  2.0170555E-05 -3.3816871E+00 -3.4502172E-02  6.7464442E-03 -5.8856420E-08 
       274     -3.1142312E-06  1.9753824E-05 -3.4140292E+00 -3.4438582E-02  7.3786384E-03 -6.1885224E-08 
       275     -3.2012028E-06  1.9315962E-05 -3.4496551E+00 -3.4371298E-02  8.0506608E-03 -6.4750352E-08 
       276     -3.2880819E-06  1.8858061E-05 -3.4888036E+00 -3.4300328E-02  8.7649128E-03 -6.7441933E-08 
       277     -3.3748659E-06  1.8381269E-05 -3.5317269E+00 -3.4225680E-02  9.5238226E-03 -6.9950293E-08 
       278     -3.4615521E-06  1.7886801E-05 -3.5786914E+00 -3.4147361E-02  1.0329842E-02 -7.2266002E-08 
       279     -3.5481377E-06  1.7375926E-05 -3.6299772E+00 -3.4065380E-02  1.1185458E-02 -7.4379917E-08 
       280     -3.6346203E-06  1.6849971E-05 -3.6858788E+00 -3.3979746E-02  1.2093186E-02 -7.6283175E-08 
       281     -3.7209970E-06  1.6310319E-05 -3.7467051E+00 -3.3890469E-02  1.3055583E-02 -7.7967201E-08 
       282     -3.8072655E-06  1.5758403E-05 -3.8127793E+00 -3.3797556E-02  1.4075243E-02 -7.9423713E-08 
       283     -3.8934226E-06  1.5195712E-05 -3.8844392E+00 -3.3701019E-02  1.5154800E-02 -8.0644708E-08 
       284     -3.9794658E-06  1.4623776E-05 -3.9620377E+00 -3.3600868E-02  1.6296937E-02 -8.1622531E-08 
       285     -4.0653927E-06  1.4044172E-05 -4.0459426E+00 -3.3497114E-02  1.7504391E-02 -8.2349834E-08 
       286     -4.1512005E-06  1.3458520E-05 -4.1365374E+00 -3.3389767E-02  1.8779950E-02 -8.2819534E-08 
       287     -4.2368866E-06  1.2868483E-05 -4.2342208E+00 -3.3278840E-02  2.0126463E-02 -8.3024837E-08 
       288     -4.3224485E-06  1.2275763E-05 -4.3394078E+00 -3.3164343E-02  2.1546843E-02 -8.2959251E-08 
       289     -4.4078836E-06  1.1682099E-05 -4.4525298E+00 -3.3046290E-02  2.3044077E-02 -8.2616585E-08 
       290      1.2187501E-07  9.6232702E-06  2.8874959E+00  8.5201703E-02  1.1591878E-01 -3.7539854E-07 
       291     -1.7684791E-06  9.6652549E-06  2.3716649E+00  8.2980269E-02  1.1496602E-01 -3.5069627E-07 
       292     -3.5135781E-06  9.7069393E-06  1.8687645E+00  8.0715769E-02  1.1400133E-01 -3.2669212E-07 
       293     -5.1172654E-06  9.7483223E-06  1.3791433E+00  7.8407290E-02  1.1302482E-01 -3.0338802E-07 
       294     -6.5834276E-06  9.7894028E-06  9.0315145E-01  7.6054145E-02  1.1203658E-01 -2.8078667E-07 
       295     -7.9159936E-06  9.8301797E-06  4.4114068E-01  7.3655877E-02  1.1103671E-01 -2.5889146E-07 
       296     -9.1189375E-06  9.8706519E-06 -6.5378345E-03  7.1212245E-02  1.1002533E-01 -2.3770641E-07 
       297     -1.0196280E-05  9.9108182E-06 -4.3953466E-01  6.8723222E-02  1.0900253E-01 -2.1723610E-07 
       298     -1.1152093E-05  9.9506777E-06 -8.5750343E-01  6.6188985E-02  1.0796842E-01 -1.9748567E-07 
       299     -1.1990501E-05  9.9902294E-06 -1.2601021E+00  6.3609911E-02  1.0692311E-01 -1.7846074E-07 
       300     -1.2715684E-05  1.0029472E-05 -1.6469941E+00  6.0986569E-02  1.0586670E-01 -1.6016738E-07 
       301     -1.3331883E-05  1.0068405E-05 -2.0178494E+00  5.8319713E-02  1.0479932E-01 -1.4261197E-07 
       302     -1.3843396E-05  1.0107027E-05 -2.3723467E+00  5.5610269E-02  1.0372106E-01 -1.2580118E-07 
       303     -1.4254580E-05  1.0145337E-05 -2.7101721E+00  5.2859341E-02  1.0263203E-01 -1.0974200E-07 
       304     -1.4569858E-05  1.0183334E-05 -3.0310234E+00  5.0068185E-02  1.0153236E-01 -9.4441583E-08 
       305     -1.4793711E-05  1.0221017E-05 -3.3346078E+00  4.7238222E-02  1.0042216E-01 -7.9907279E-08 
       306     -1.4930682E-05  1.0258386E-05 -3.6206458E+00  4.4371008E-02  9.9301535E-02 -6.6146442E-08 
       307     -1.4985373E-05  1.0295439E-05 -3.8888693E+00  4.1468248E-02  9.8170610E-02 -5.3166516E-08 
       308     -1.4962445E-05  1.0332176E-05 -4.1390254E+00  3.8531764E-02  9.7029498E-02 -4.0974887E-08 
       309     -1.4866615E-05  1.0368596E-05 -4.3708742E+00  3.5563513E-02  9.5878320E-02 -2.9579012E-08 
       310     -1.4702658E-05  1.0404698E-05 -4.5841923E+00  3.2565551E-02  9.4717194E-02 -1.8986209E-08 
       311     -1.4475404E-05  1.0440482E-05 -4.7787711E+00  2.9540047E-02  9.3546241E-02 -9.2037815E-09 
       312     -1.4189738E-05  1.0475946E-05 -4.9544187E+00  2.6489269E-02  9.2365583E-02 -2.3891583E-10 
       313     -1.3850598E-05  1.0511091E-05 -5.1109608E+00  2.3415562E-02  9.1175343E-02  7.9013574E-09 
       314     -1.3462971E-05  1.0545916E-05 -5.2482405E+00  2.0321352E-02  8.9975643E-02  1.5210157E-08 
       315     -1.3031897E-05  1.0580419E-05 -5.3661190E+00  1.7209126E-02  8.8766605E-02  2.1680788E-08 
       316     -1.2562464E-05  1.0614601E-05 -5.4644753E+00  1.4081457E-02  8.7548360E-02  2.7306730E-08 
       317     -1.2059804E-05  1.0648461E-05 -5.5432080E+00  1.0940942E-02  8.6321032E-02  3.2081753E-08 
       318     -1.1529092E-05  1.0681999E-05 -5.6022347E+00  7.7902273E-03  8.5084749E-02  3.5999869E-08 
       319     -1.0975544E-05  1.0715214E-05 -5.6414922E+00  4.6319861E-03  8.3839634E-02  3.9055363E-08 
       320     -1.0404413E-05  1.0748105E-05 -5.6609366E+00  1.4689361E-03  8.2585824E-02  4.1242762E-08 
       321     -9.8209883E-06  1.0780673E-05 -5.6605441E+00 -1.6962147E-03  8.1323446E-02  4.2556946E-08 
       322     -9.2305910E-06  1.0812916E-05 -5.6403102E+00 -4.8607445E-03  8.0052631E-02  4.2993089E-08 
       323     -8.6385711E-06  1.0844834E-05 -5.6002504E+00 -8.0219376E-03  7.8773510E-02  4.2546687E-08 
       324     -8.0503027E-06  1.0876428E-05 -5.5403995E+00 -1.1177101E-02  7.7486213E-02  4.1213568E-08 
       325     -7.4711874E-06  1.0907696E-05 -5.4608123E+00 -1.4323538E-02  7.6190880E-02  3.8989871E-08 
       326     -6.9066416E-06  1.0938638E-05 -5.3615625E+00 -1.7458613E-02  7.4887641E-02  3.5872016E-08 
       327     -6.3621017E-06  1.0969254E-05 -5.2427432E+00 -2.0579721E-02  7.3576634E-02  3.1856742E-08 
       328     -5.8430175E-06  1.0999543E-05 -5.1044657E+00 -2.3684316E-02  7.2257989E-02  2.6941052E-08 
       329     -5.3548555E-06  1.1029506E-05 -4.9468609E+00 -2.6769889E-02  7.0931851E-02  2.1122287E-08 
       330     -4.9030878E-06  1.1059141E-05 -4.7700770E+00 -2.9834025E-02  6.9598354E-02  1.4398052E-08 
       331     -4.5777393E-06  1.1101974E-05 -4.3409724E+00 -3.5814310E-02  6.8571108E-02 -5.3799352E-10 
       332     -4.7041690E-06  1.1115170E-05 -4.0896281E+00 -3.8676549E-02  6.8877465E-02 -7.5732761E-09 
       333     -4.8708649E-06  1.1128039E-05 -3.8207585E+00 -4.1459072E-02  6.9176677E-02 -1.4341517E-08 
       334     -5.0762090E-06  1.1140579E-05 -3.5348938E+00 -4.4159939E-02  6.9468710E-02 -2.0844616E-08 
       335     -5.3185923E-06  1.1152792E-05 -3.2325730E+00 -4.6777390E-02  6.9753538E-02 -2.7084732E-08 
       336     -5.5964080E-06  1.1164677E-05 -2.9143541E+00 -4.9309749E-02  7.0031127E-02 -3.3064031E-08 
       337     -5.9080639E-06  1.1176234E-05 -2.5808013E+00 -5.1755543E-02  7.0301451E-02 -3.8784932E-08 
       338     -6.2519723E-06  1.1187463E-05 -2.2324945E+00 -5.4113409E-02  7.0564482E-02 -4.4249907E-08 
       339     -6.6265541E-06  1.1198365E-05 -1.8700244E+00 -5.6382149E-02  7.0820190E-02 -4.9461594E-08 
       340     -7.0302469E-06  1.1208939E-05 -1.4939849E+00 -5.8560767E-02  7.1068552E-02 -5.4422874E-08 
       341     -7.4614917E-06  1.1219186E-05 -1.1049853E+00 -6.0648396E-02  7.1309539E-02 -5.9136705E-08 
       342     -7.9187503E-06  1.1229106E-05 -7.0363443E-01 -6.2644390E-02  7.1543129E-02 -6.3606335E-08 
       343     -8.4004926E-06  1.1238699E-05 -2.9055203E-01 -6.4548261E-02  7.1769296E-02 -6.7835184E-08 
       344     -8.9052043E-06  1.1247964E-05  1.3363716E-01 -6.6359710E-02  7.1988016E-02 -7.1826899E-08 
       345     -9.4313976E-06  1.1256903E-05  5.6831199E-01 -6.8078667E-02  7.2199269E-02 -7.5585467E-08 
       346     -9.9775988E-06  1.1265516E-05  1.0128431E+00 -6.9705233E-02  7.2403030E-02 -7.9115053E-08 
       347     -1.0542356E-05  1.1273802E-05  1.4666003E+00 -7.1239718E-02  7.2599279E-02 -8.2420086E-08 
       348     -1.1124249E-05  1.1281761E-05  1.9289615E+00 -7.2682668E-02  7.2787996E-02 -8.5505303E-08 
       349     -1.1721875E-05  1.1289395E-05  2.3992972E+00 -7.4034812E-02  7.2969161E-02 -8.8375669E-08 
       350     -1.2333869E-05  1.1296702E-05  2.8769912E+00 -7.5297128E-02  7.3142756E-02 -9.1036520E-08 
       351     -1.2958886E-05  1.1303683E-05  3.3614255E+00 -7.6470794E-02  7.3308762E-02 -9.3493399E-08 
       352     -1.3595614E-05  1.1310339E-05  3.8519882E+00 -7.7557217E-02  7.3467161E-02 -9.5752164E-08 
       353     -1.4242785E-05  1.1316669E-05  4.3480828E+00 -7.8558049E-02  7.3617940E-02 -9.7819029E-08 
       354     -1.4899158E-05  1.1322673E-05  4.8491153E+00 -7.9475156E-02  7.3761080E-02 -9.9700489E-08 
       355     -1.5563531E-05  1.1328352E-05  5.3545020E+00 -8.0310640E-02  7.3896566E-02 -1.0140334E-07 
       356     -1.6234754E-05  1.1333706E-05  5.8636797E+00 -8.1066852E-02  7.4024387E-02 -1.0293468E-07 
       357     -1.6911702E-05  1.1338734E-05  6.3760888E+00 -8.1746363E-02  7.4144526E-02 -1.0430183E-07 
       358     -1.7593310E-05  1.1343437E-05  6.8911956E+00 -8.2351998E-02  7.4256974E-02 -1.0551255E-07 
       359     -1.8278549E-05  1.1347816E-05  7.4084756E+00 -8.2886815E-02  7.4361718E-02 -1.0657483E-07 
       360     -1.8966437E-05  1.1351869E-05  7.9274227E+00 -8.3354110E-02  7.4458746E-02 -1.0749698E-07 
       361     -1.9656054E-05  1.1355598E-05  8.4475589E+00 -8.3757433E-02  7.4548049E-02 -1.0828766E-07 
       362     -2.0346518E-05  1.1359002E-05  8.9684174E+00 -8.4100566E-02  7.4629617E-02 -1.0895577E-07 
       363     -2.1037014E-05  1.1362081E-05  9.4895646E+00 -8.4387541E-02  7.4703443E-02 -1.0951057E-07 
       364     -2.1726770E-05  1.1364836E-05  1.0010584E+01 -8.4622629E-02  7.4769518E-02 -1.0996159E-07 
       365     -2.2415073E-05  1.1367267E-05  1.0531086E+01 -8.4810347E-02  7.4827836E-02 -1.1031871E-07 
       366     -2.3101279E-05  1.1369374E-05  1.1050714E+01 -8.4955454E-02  7.4878390E-02 -1.1059220E-07 
       367     -2.3784798E-05  1.1371156E-05  1.1569137E+01 -8.5062952E-02  7.4921176E-02 -1.1079264E-07 
       368     -2.4465106E-05  1.1372614E-05  1.2086050E+01 -8.5138085E-02  7.4956188E-02 -1.1093092E-07 
       369     -2.5141754E-05  1.1373748E-05  1.2601192E+01 -8.5186336E-02  7.4983424E-02 -1.1101823E-07 
       370     -2.5814352E-05  1.1374558E-05  1.3114323E+01 -8.5213432E-02  7.5002880E-02 -1.1106607E-07 
       371     -2.6482591E-05  1.1375044E-05  1.3625249E+01 -8.5225336E-02  7.5014555E-02 -1.1108628E-07 

 MAXIMUM         3.1661E-05  1.2756E-04   17.92      0.2421      0.1479      1.3529E-06
 AT NODE                 3           6           6           8           8           4

 MINIMUM        -2.7146E-05 -2.5695E-04  -26.07     -8.5235E-02 -0.1479     -1.3473E-06
 AT NODE                13           4           8           3           4           8


          THE ANALYSIS HAS BEEN COMPLETED



                              ANALYSIS COMPLETE



     JOB TIME SUMMARY
       USER TIME (SEC)      =  0.80000    
       SYSTEM TIME (SEC)    =  0.20000    
       TOTAL CPU TIME (SEC) =   1.0000    
       WALLCLOCK TIME (SEC) =          1
